/*--------------------------------*- C++ -*----------------------------------*\
| =========                 |                                                 |
| \\      /  F ield         | OpenFOAM: The Open Source CFD Toolbox           |
|  \\    /   O peration     | Version:  2312                                  |
|   \\  /    A nd           | Website:  www.openfoam.com                      |
|    \\/     M anipulation  |                                                 |
\*---------------------------------------------------------------------------*/
FoamFile
{
    version     2.0;
    format      binary;
    arch        "LSB;label=32;scalar=64";
    class       volVectorField;
    location    "0";
    object      U;
}
// * * * * * * * * * * * * * * * * * * * * * * * * * * * * * * * * * * * * * //

dimensions      [0 1 -1 0 0 0 0];

internalField   uniform (0 0 0);

boundaryField
{
    overset1
    {
        type            overset;
        value           uniform (0 0 0);
    }
    overset2
    {
        type            overset;
        value           uniform (0 0 0);
    }
    walls
    {
        type            uniformFixedValue;
        uniformValue    constant (0 0 0);
        value           uniform (0 0 0);
    }
    inlet
    {
        type            uniformFixedValue;
        uniformValue    constant (0 0 0);
        value           uniform (0 0 0);
    }
    outlet
    {
        type            uniformFixedValue;
        uniformValue    constant (0 0 0);
        value           uniform (0 0 0);
    }
    hole
    {
        type            movingWallVelocity;
        value           uniform (0 0 0);
    }
    hole1
    {
        type            movingWallVelocity;
        value           uniform (0 0 0);
    }
    frontAndBack
    {
        type            empty;
    }
    frontAndBack1
    {
        type            empty;
    }
    frontAndBack2
    {
        type            empty;
    }
}


// ************************************************************************* //
