/*--------------------------------*- C++ -*----------------------------------*\
| =========                 |                                                 |
| \\      /  F ield         | OpenFOAM: The Open Source CFD Toolbox           |
|  \\    /   O peration     | Version:  2312                                  |
|   \\  /    A nd           | Website:  www.openfoam.com                      |
|    \\/     M anipulation  |                                                 |
\*---------------------------------------------------------------------------*/
FoamFile
{
    version     2.0;
    format      binary;
    arch        "LSB;label=32;scalar=64";
    class       volScalarField;
    location    "0";
    object      nut;
}
// * * * * * * * * * * * * * * * * * * * * * * * * * * * * * * * * * * * * * //

dimensions      [0 2 -1 0 0 0 0];

internalField   uniform 0;

boundaryField
{
    overset1
    {
        type            overset;
        value           uniform 0;
    }
    overset2
    {
        type            overset;
        value           uniform 0;
    }
    walls
    {
        type            nutkWallFunction;
        blending        stepwise;
        value           uniform 0;
    }
    inlet
    {
        type            nutkWallFunction;
        blending        stepwise;
        value           uniform 0;
    }
    outlet
    {
        type            nutkWallFunction;
        blending        stepwise;
        value           uniform 0;
    }
    hole
    {
        type            nutkWallFunction;
        blending        stepwise;
        value           uniform 0;
    }
    hole1
    {
        type            nutkWallFunction;
        blending        stepwise;
        value           uniform 0;
    }
    frontAndBack
    {
        type            empty;
    }
    frontAndBack1
    {
        type            empty;
    }
    frontAndBack2
    {
        type            empty;
    }
}


// ************************************************************************* //
